<?xml version="1.0" encoding="UTF-8"?>

<!-- generated on 2025-03-19 08:55:25 by Eclipse SUMO netedit Version 1.22.0
-->

<routes xmlns:xsi="http://www.w3.org/2001/XMLSchema-instance" xsi:noNamespaceSchemaLocation="http://sumo.dlr.de/xsd/routes_file.xsd">
<!-- VTypes -->
<vType id="BusType" vClass="bus"/>
<!-- Routes -->
<route id="route_18" edges="5914-233d0cdc 1546-33fd8055 5779-c6aeef3f 8151-20dc80d1 1869-5e6c53e2 8149-2cc6f1a3 8147-58c872f4 8145-8a0f9a34 8143-3123975c 8141-a4ce3936 8139-2a085b0f 8137-924f9275 8133-4629fc99 8131-3cc7ec8a 8129-39943bed 8127-33d8995c 8125-0b23e96e 8123-af1d2f39 8121-2a2cd206 8119-e41c6252 8117-0671251b 8115-d510785e 8113-669001e8 8111-90faa379 8107-c8de6594 8105-5b355394 8103-aa6d2901 8101-29d73840 7135-b1ba3584 7133-173774ea 7065-5235e1c6 7059-607e2a63 7053-154c6c71 7049-24767414"/>
<route id="route_70" edges="6231-190b2aaa 6294-9919bdf3 6296-473fe125 6137-efe1e5a5 6139-f2088f38 6141-eb56f749 6135-e06c5bc7 6133-76d6b3e0 6131-5efac242 6129-28bbc03d 6127-61b89047 6125-cf3235f8 1760-317dbc99 7523-7abc98c6 7521-14bbf05f 7519-4859f3cb 7517-d5034761 7515-b4111e45 7513-e09ddd20 7511-c8760fea 7509-6b201da2 7505-04bee04b 7503-832c53ad 7501-d6dd7a1b 7615-0b0212c3 7613-befee71d 7611-b02f5fd0 7607-e365ff93 7605-01c4b26f 8480-db304e65 7601-17be9b9f 7207-bfc319e4 7205-e1b07628 7203-52127399 7201-b3efdf9d 7177-4660a5ff 7231-d0b82ab5 7227-3ccd581c 7149-6d6d1e99 7147-4e9003b4 7145-caabaedd 7141-d8af5868 7020-65f1fc06"/>
<!-- Vehicles, persons and containers (sorted by depart) -->
<trip id="bus_18" type="BusType" depart="0.00" from="5914-233d0cdc" to="7049-24767414" via="5914-233d0cdc 1546-33fd8055 5779-c6aeef3f 8151-20dc80d1 1869-5e6c53e2 8149-2cc6f1a3 8147-58c872f4 8145-8a0f9a34 8143-3123975c 8141-a4ce3936 8139-2a085b0f 8137-924f9275 8133-4629fc99 8131-3cc7ec8a 8129-39943bed 8127-33d8995c 8125-0b23e96e 8123-af1d2f39 8121-2a2cd206 8119-e41c6252 8117-0671251b 8115-d510785e 8113-669001e8 8111-90faa379 8107-c8de6594 8105-5b355394 8103-aa6d2901 8101-29d73840 7135-b1ba3584 7133-173774ea 7065-5235e1c6 7059-607e2a63 7053-154c6c71 7049-24767414">
    <stop busStop="1869-5e6c53e2" duration="5"/>
    <stop busStop="8121-2a2cd206" duration="5"/>
    <stop busStop="8125-0b23e96e" duration="5"/>
      <stop busStop="8139-2a085b0f" duration="5"/>
      <stop busStop="8129-39943bed" duration="5"/>
  </trip>

<trip id="bus_70" type="BusType" depart="0.00" from="6231-190b2aaa" to="7020-65f1fc06" via="6231-190b2aaa 6294-9919bdf3 6296-473fe125 6137-efe1e5a5 6139-f2088f38 6141-eb56f749 6135-e06c5bc7 6133-76d6b3e0 6131-5efac242 6129-28bbc03d 6127-61b89047 6125-cf3235f8 1760-317dbc99 7523-7abc98c6 7521-14bbf05f 7519-4859f3cb 7517-d5034761 7515-b4111e45 7513-e09ddd20 7511-c8760fea 7509-6b201da2 7505-04bee04b 7503-832c53ad 7501-d6dd7a1b 7615-0b0212c3 7613-befee71d 7611-b02f5fd0 7607-e365ff93 7605-01c4b26f 8480-db304e65 7601-17be9b9f 7207-bfc319e4 7205-e1b07628 7203-52127399 7201-b3efdf9d 7177-4660a5ff 7231-d0b82ab5 7227-3ccd581c 7149-6d6d1e99 7147-4e9003b4 7145-caabaedd 7141-d8af5868 7020-65f1fc06">
    <stop busStop="6231-190b2aaa" duration="5"/>
    <stop busStop="1760-317dbc99" duration="5"/>
</trip>
</routes>
