<?xml version="1.0"?>
<routes>
  <vType id="bus" accel="1.0" decel="1.0" length="12" maxSpeed="20">
    <route id="route_18" edges="5914-233d0cdc 1546-33fd8055 5779-c6aeef3f 8151-20dc80d1 1869-5e6c53e2 8149-2cc6f1a3 8147-58c872f4 8145-8a0f9a34 8143-3123975c 8141-a4ce3936 8139-2a085b0f 8137-924f9275 8133-4629fc99 8131-3cc7ec8a 8129-39943bed 8127-33d8995c 8125-0b23e96e 8123-af1d2f39 8121-2a2cd206 8119-e41c6252 8117-0671251b 8115-d510785e 8113-669001e8 8111-90faa379 8107-c8de6594 8105-5b355394 8103-aa6d2901 8101-29d73840 7135-b1ba3584 7133-173774ea 7065-5235e1c6 7059-607e2a63 7053-154c6c71 7049-24767414">
      <vehicle id="bus_18" type="bus" route="route_18" depart="0">
        <stop busStop="5914-233d0cdc" duration="10">
          <stop busStop="8151-20dc80d1" duration="10"/>
        </stop>
      </vehicle>
    </route>
  </vType>
</routes>