<?xml version="1.0" encoding="UTF-8"?>

<!-- generated on 2025-03-14 14:37:40 by Eclipse SUMO netedit Version 1.22.0
-->

<routes xmlns:xsi="http://www.w3.org/2001/XMLSchema-instance" xsi:noNamespaceSchemaLocation="http://sumo.dlr.de/xsd/routes_file.xsd">
    <!-- VTypes -->
    <vType id="BusType" vClass="bus"/>
    <vType id="DEFAULT_VEHTYPE" vClass="bus"/>
    <!-- Routes -->
    <route id="r_0" edges="5914-233d0cdc 1546-33fd8055 5779-c6aeef3f 8151-20dc80d1 1869-5e6c53e2 8149-2cc6f1a3 8147-58c872f4 8145-8a0f9a34 8143-3123975c 8141-a4ce3936 8139-2a085b0f 8137-924f9275 8133-4629fc99 8131-3cc7ec8a 8129-39943bed 8127-33d8995c 8125-0b23e96e 8123-af1d2f39 8121-2a2cd206 8119-e41c6252"/>
    <route id="route2" edges="-E8 -E7 -E7.283 -E6 -E5 -E5.212 -E4 -E3 -E3.63 -E3.247 -E2 E0 E1 E9 E10 E11 E12 7517-d5034761 E14 E15"/>
    <route id="route3" edges="-E8 -E7 -E16 -E16.100 E0 E1 E9 E10 E11 E12 7517-d5034761 E14 E15"/>
    <route id="route_18" edges="5914-233d0cdc 1546-33fd8055 5779-c6aeef3f 8151-20dc80d1 1869-5e6c53e2 8149-2cc6f1a3 8147-58c872f4 8145-8a0f9a34 8143-3123975c 8141-a4ce3936 8139-2a085b0f 8137-924f9275 8133-4629fc99 8131-3cc7ec8a 8129-39943bed 8127-33d8995c 8125-0b23e96e 8123-af1d2f39 8121-2a2cd206 8119-e41c6252 8117-0671251b 8115-d510785e 8113-669001e8 8111-90faa379 8107-c8de6594 8105-5b355394 8103-aa6d2901 8101-29d73840 7135-b1ba3584 7133-173774ea 7065-5235e1c6 7059-607e2a63 7053-154c6c71 7049-24767414"/>
    <!-- Vehicles, persons and containers (sorted by depart) -->
    <trip id="bus01" type="BusType" depart="0.00" color="red" from="-E8" to="E15"/>
    <trip id="bus02" type="BusType" depart="0.00" color="red" from="-E8" to="E15"/>
    <trip id="bus_18" type="BusType" depart="0.00" from="5914-233d0cdc" to="7049-24767414" via="1546-33fd8055 5779-c6aeef3f 8151-20dc80d1 1869-5e6c53e2 8149-2cc6f1a3 8147-58c872f4 8145-8a0f9a34 8143-3123975c 8141-a4ce3936 8139-2a085b0f 8137-924f9275 8133-4629fc99 8131-3cc7ec8a 8129-39943bed 8127-33d8995c 8125-0b23e96e 8123-af1d2f39 8121-2a2cd206 8119-e41c6252 8117-0671251b 8115-d510785e 8113-669001e8 8111-90faa379 8107-c8de6594 8105-5b355394 8103-aa6d2901 8101-29d73840 7135-b1ba3584 7133-173774ea 7065-5235e1c6 7059-607e2a63 7053-154c6c71">
        <stop busStop="5914-233d0cdc" duration="5"/>
        <stop busStop="1546-33fd8055" duration="5"/>
    </trip>
</routes>
