<?xml version="1.0" encoding="UTF-8"?>

<!-- generated on 2025-03-14 14:37:40 by Eclipse SUMO sumo Version 1.22.0
-->

<sumoConfiguration xmlns:xsi="http://www.w3.org/2001/XMLSchema-instance" xsi:noNamespaceSchemaLocation="http://sumo.dlr.de/xsd/sumoConfiguration.xsd">

    <input>
        <net-file value="assignment.net.xml"/>
        <route-files value="assignment.rou.xml"/>
        <additional-files value="assignment.add.xml"/>
    </input>

</sumoConfiguration>
