<?xml version="1.0" encoding="UTF-8"?>

<!-- generated on 2025-03-14 12:57:18 by Eclipse SUMO netedit Version 1.22.0
-->

<routes xmlns:xsi="http://www.w3.org/2001/XMLSchema-instance" xsi:noNamespaceSchemaLocation="http://sumo.dlr.de/xsd/routes_file.xsd">
    <!-- VTypes -->
    <vType id="BusType" vClass="bus"/>
    <vType id="DEFAULT_VEHTYPE" vClass="bus"/>
    <!-- Routes -->
    <route id="route2" edges="-E8 -E7 -E7.283 -E6 -E5 -E5.212 -E4 -E3 -E3.63 -E3.247 -E2 E0 E1 E9 E10 E11 E12 7517-d5034761 E14 E15"/>
    <route id="route3" edges="-E8 -E7 -E16 -E16.100 E0 E1 E9 E10 E11 E12 7517-d5034761 E14 E15"/>
    <!-- Vehicles, persons and containers (sorted by depart) -->
    <trip id="bus02" type="BusType" depart="0.00" color="red" from="-E8" to="E15"/>
</routes>
