<?xml version="1.0" encoding="UTF-8"?>

<!-- generated on 2025-03-13 15:52:12 by Eclipse SUMO netedit Version 1.22.0
-->

<routes xmlns:xsi="http://www.w3.org/2001/XMLSchema-instance" xsi:noNamespaceSchemaLocation="http://sumo.dlr.de/xsd/routes_file.xsd">
    <!-- VTypes -->
    <vType id="BusType" vClass="bus"/>
    <vType id="DEFAULT_VEHTYPE" vClass="bus"/>
    <!-- Routes -->
    <route id="route1" edges="-E15 -E14 -E13 -E12 -E11 -E10 -E9 -E1 -E0 E2 E3 E3.83 E4 E5 E6 E7 E8"/>
    <route id="route2" edges="-E8 -E7 -E7.283 -E6 -E5 -E5.212 -E4 -E3 -E3.63 -E3.247 -E2 E0 E1 E9 E10 E11 E12 E13 E14 E15"/>
    <route id="route3" edges="-E8 -E7 -E16 -E16.100 E0 E1 E9 E10 E11 E12 E13 E14 E15"/>
    <route id="route4" edges="-E15 -E14 -E13 -E12 -E11 -E10 -E9 -E1 -E0 E2 E3 E26 E27 E28 E29 E30 E31 E32 E33 E34"/>
    <!-- Vehicles, persons and containers (sorted by depart) -->
    <trip id="bus01" type="BusType" depart="0.00" color="blue" from="-E15" to="E34">
        <stop busStop="5914-233d0cdc" duration="5.00"/>
        <stop busStop="1546-33fd8055" duration="5.00"/>
        <stop busStop="5779-c6aeef3f" duration="5.00"/>
    </trip>
    <trip id="bus02" type="BusType" depart="0.00" color="red" from="-E8" to="E15"/>
</routes>
