<?xml version="1.0" encoding="UTF-8"?>

<!-- generated on 2025-03-19 08:49:03 by Eclipse SUMO netedit Version 1.22.0
<neteditConfiguration xmlns:xsi="http://www.w3.org/2001/XMLSchema-instance" xsi:noNamespaceSchemaLocation="http://sumo.dlr.de/xsd/neteditConfiguration.xsd">

    <input>
        <sumocfg-file value="D:\PycharmProjects\ITS_AutomatedStopping\Simulation\assignment.sumocfg"/>
        <additional-files value="D:\PycharmProjects\ITS_AutomatedStopping\Simulation\assignment.add.xml"/>
        <route-files value="D:\PycharmProjects\ITS_AutomatedStopping\Simulation\assignment.rou.xml"/>
        <sumo-net-file value="D:\PycharmProjects\ITS_AutomatedStopping\Simulation\assignment.net.xml"/>
    </input>

    <output>
        <output-file value="D:\PycharmProjects\ITS_AutomatedStopping\Simulation\assignment.net.xml"/>
    </output>

    <processing>
        <geometry.min-radius.fix.railways value="false"/>
        <geometry.max-grade.fix value="false"/>
        <offset.disable-normalization value="true"/>
        <lefthand value="0"/>
    </processing>

    <junctions>
        <no-turnarounds value="true"/>
        <junctions.corner-detail value="5"/>
        <junctions.limit-turn-speed value="5.50"/>
        <rectangular-lane-cut value="0"/>
    </junctions>

    <pedestrian>
        <walkingareas value="0"/>
    </pedestrian>

</neteditConfiguration>
-->

<net version="1.20" junctionCornerDetail="5" limitTurnSpeed="5.50" xmlns:xsi="http://www.w3.org/2001/XMLSchema-instance" xsi:noNamespaceSchemaLocation="http://sumo.dlr.de/xsd/net_file.xsd">

    <location netOffset="0.00,0.00" convBoundary="-1664.52,-1554.99,1085.54,132.57" origBoundary="-10000000000.00,-10000000000.00,10000000000.00,10000000000.00" projParameter="!"/>

    <edge id=":J0_0" function="internal">
        <lane id=":J0_0_0" index="0" speed="13.89" length="13.02" shape="-81.18,33.81 -84.85,34.29 -87.22,35.54 -89.58,36.91 -93.24,37.75"/>
        <lane id=":J0_0_1" index="1" speed="13.89" length="13.02" shape="-81.10,30.61 -84.86,31.09 -87.29,32.34 -89.72,33.72 -93.48,34.56"/>
    </edge>
    <edge id=":J0_2" function="internal">
        <lane id=":J0_2_0" index="0" disallow="bus" speed="10.46" length="1.96" shape="-81.10,30.61 -83.00,30.11"/>
    </edge>
    <edge id=":J0_8" function="internal">
        <lane id=":J0_8_0" index="0" disallow="bus" speed="10.46" length="11.87" shape="-83.00,30.11 -83.40,30.00 -85.83,28.31 -88.39,25.52 -91.08,21.65"/>
    </edge>
    <edge id=":J0_3" function="internal">
        <lane id=":J0_3_0" index="0" speed="8.50" length="8.94" shape="-88.36,19.96 -86.93,21.77 -85.22,23.08 -83.22,23.90 -80.93,24.21"/>
    </edge>
    <edge id=":J0_4" function="internal">
        <lane id=":J0_4_0" index="0" speed="8.22" length="20.57" shape="-88.36,19.96 -85.50,25.97 -85.40,30.41 -88.06,33.27 -93.48,34.56"/>
    </edge>
    <edge id=":J0_5" function="internal">
        <lane id=":J0_5_0" index="0" disallow="bus" speed="5.80" length="9.53" shape="-93.94,28.18 -91.28,27.59 -89.91,26.30 -89.84,24.32 -91.08,21.65"/>
    </edge>
    <edge id=":J0_6" function="internal">
        <lane id=":J0_6_0" index="0" speed="13.89" length="13.62" shape="-93.94,28.18 -90.00,27.32 -87.44,25.94 -84.88,24.68 -80.93,24.21"/>
        <lane id=":J0_6_1" index="1" speed="13.89" length="13.62" shape="-93.71,31.37 -89.86,30.52 -87.37,29.14 -84.87,27.89 -81.02,27.41"/>
    </edge>
    <edge id=":J1_0" function="internal">
        <lane id=":J1_0_0" index="0" speed="13.89" length="16.34" shape="52.91,42.93 49.02,40.41 46.30,38.59 43.38,37.46 38.91,36.98"/>
        <lane id=":J1_0_1" index="1" speed="13.89" length="16.34" shape="54.53,40.17 50.22,37.41 47.19,35.47 43.94,34.28 39.00,33.78"/>
    </edge>
    <edge id=":J1_2" function="internal">
        <lane id=":J1_2_0" index="0" speed="9.37" length="3.31" shape="54.53,40.17 52.18,37.84"/>
    </edge>
    <edge id=":J1_8" function="internal">
        <lane id=":J1_8_0" index="0" speed="9.37" length="14.98" shape="52.18,37.84 52.02,37.68 51.06,34.07 51.66,29.33 53.80,23.47"/>
    </edge>
    <edge id=":J1_3" function="internal">
        <lane id=":J1_3_0" index="0" speed="7.36" length="10.92" shape="56.72,24.80 55.54,28.15 55.32,30.90 56.06,33.07 57.76,34.64"/>
    </edge>
    <edge id=":J1_4" function="internal">
        <lane id=":J1_4_0" index="0" speed="11.50" length="21.12" shape="56.72,24.80 54.01,28.86 50.16,31.72 45.15,33.36 39.00,33.78"/>
    </edge>
    <edge id=":J1_5" function="internal">
        <lane id=":J1_5_0" index="0" speed="10.00" length="15.78" shape="39.16,27.39 44.84,27.27 49.18,26.58 52.16,25.31 53.80,23.47"/>
    </edge>
    <edge id=":J1_6" function="internal">
        <lane id=":J1_6_0" index="0" speed="13.89" length="19.56" shape="39.16,27.39 45.07,27.92 48.97,29.22 52.62,31.42 57.76,34.64"/>
        <lane id=":J1_6_1" index="1" speed="13.89" length="19.56" shape="39.08,30.59 44.51,31.10 48.08,32.35 51.42,34.42 56.14,37.40"/>
    </edge>
    <edge id=":J10_0" function="internal">
        <lane id=":J10_0_0" index="0" speed="9.13" length="13.80" shape="404.45,84.81 403.58,88.34 401.87,91.12 399.32,93.16 395.92,94.44"/>
        <lane id=":J10_0_1" index="1" speed="7.80" length="9.86" shape="401.27,84.45 400.65,86.97 399.43,88.96 397.60,90.41 395.18,91.33"/>
    </edge>
    <edge id=":J10_2" function="internal">
        <lane id=":J10_2_0" index="0" speed="3.96" length="1.97" shape="393.69,85.10 394.17,84.92 394.54,84.63 394.78,84.23 394.91,83.73"/>
        <lane id=":J10_2_1" index="1" speed="6.18" length="5.91" shape="394.43,88.22 395.89,87.67 396.98,86.79 397.72,85.60 398.09,84.09"/>
    </edge>
    <edge id=":J11_0" function="internal">
        <lane id=":J11_0_0" index="0" speed="4.08" length="1.50" shape="426.86,-107.09 426.55,-106.86 426.31,-106.58 426.15,-106.26 426.06,-105.88"/>
        <lane id=":J11_0_1" index="1" speed="6.41" length="4.51" shape="425.27,-109.86 424.33,-109.18 423.62,-108.35 423.14,-107.37 422.88,-106.24"/>
    </edge>
    <edge id=":J11_2" function="internal">
        <lane id=":J11_2_0" index="0" speed="9.48" length="10.52" shape="416.53,-106.96 417.11,-109.60 418.24,-111.89 419.89,-113.83 422.09,-115.42"/>
        <lane id=":J11_2_1" index="1" speed="8.09" length="7.51" shape="419.70,-106.60 420.12,-108.49 420.93,-110.12 422.11,-111.51 423.68,-112.64"/>
    </edge>
    <edge id=":J12_0" function="internal">
        <lane id=":J12_0_0" index="0" speed="12.38" length="4.34" shape="745.15,-290.63 744.29,-289.41 743.60,-288.63 742.77,-288.01 741.49,-287.25"/>
        <lane id=":J12_0_1" index="1" speed="10.52" length="4.34" shape="742.52,-292.44 741.90,-291.57 741.41,-291.01 740.82,-290.57 739.90,-290.03"/>
    </edge>
    <edge id=":J12_2" function="internal">
        <lane id=":J12_2_0" index="0" speed="13.89" length="1.45" shape="736.72,-295.58 736.90,-295.69 737.02,-295.78 737.12,-295.89 737.24,-296.06"/>
        <lane id=":J12_2_1" index="1" speed="8.26" length="1.45" shape="738.31,-292.80 738.86,-293.13 739.21,-293.40 739.51,-293.73 739.88,-294.25"/>
    </edge>
    <edge id=":J13_0" function="internal">
        <lane id=":J13_0_0" index="0" speed="11.87" length="4.64" shape="864.34,-466.36 864.13,-464.78 863.85,-463.70 863.34,-462.71 862.46,-461.38"/>
        <lane id=":J13_0_1" index="1" speed="10.10" length="4.64" shape="861.17,-466.75 861.01,-465.62 860.81,-464.85 860.45,-464.14 859.82,-463.19"/>
    </edge>
    <edge id=":J13_2" function="internal">
        <lane id=":J13_2_0" index="0" speed="13.89" length="1.55" shape="854.55,-466.82 854.67,-467.01 854.74,-467.15 854.78,-467.30 854.82,-467.53"/>
        <lane id=":J13_2_1" index="1" speed="7.93" length="1.55" shape="857.18,-465.01 857.56,-465.58 857.78,-466.00 857.90,-466.46 857.99,-467.14"/>
    </edge>
    <edge id=":J14_0" function="internal">
        <lane id=":J14_0_0" index="0" speed="13.89" length="1.12" shape="913.13,-865.13 913.13,-864.74 913.12,-864.48 913.09,-864.21 913.05,-863.82"/>
        <lane id=":J14_0_1" index="1" speed="13.89" length="1.12" shape="909.93,-865.15 909.93,-864.87 909.92,-864.68 909.91,-864.49 909.87,-864.21"/>
    </edge>
    <edge id=":J14_2" function="internal">
        <lane id=":J14_2_0" index="0" speed="13.89" length="0.37" shape="903.52,-864.99 903.53,-865.05 903.53,-865.08 903.53,-865.12 903.53,-865.18"/>
        <lane id=":J14_2_1" index="1" speed="13.89" length="0.37" shape="906.70,-864.60 906.72,-864.77 906.73,-864.88 906.73,-865.00 906.73,-865.16"/>
    </edge>
    <edge id=":J15_0" function="internal">
        <lane id=":J15_0_0" index="0" speed="13.89" length="1.75" shape="914.68,-1132.26 914.54,-1132.04 914.48,-1131.87 914.45,-1131.69 914.44,-1131.44"/>
        <lane id=":J15_0_1" index="1" speed="7.48" length="1.75" shape="911.94,-1133.93 911.55,-1133.26 911.34,-1132.76 911.26,-1132.23 911.24,-1131.45"/>
    </edge>
    <edge id=":J15_2" function="internal">
        <lane id=":J15_2_0" index="0" speed="11.16" length="5.26" shape="904.84,-1131.48 904.88,-1133.29 905.08,-1134.54 905.57,-1135.70 906.48,-1137.26"/>
        <lane id=":J15_2_1" index="1" speed="9.50" length="5.26" shape="908.04,-1131.47 908.07,-1132.76 908.21,-1133.65 908.56,-1134.48 909.21,-1135.59"/>
    </edge>
    <edge id=":J17_0" function="internal">
        <lane id=":J17_0_0" index="0" speed="6.19" length="9.05" shape="-545.87,-707.96 -547.50,-709.90 -549.31,-710.74 -551.27,-710.47 -553.41,-709.10"/>
    </edge>
    <edge id=":J17_1" function="internal">
        <lane id=":J17_1_0" index="0" disallow="bus" speed="13.89" length="14.83" shape="-545.87,-707.96 -547.83,-711.14 -549.83,-714.25 -552.02,-717.21 -554.52,-719.95"/>
    </edge>
    <edge id=":J17_2" function="internal">
        <lane id=":J17_2_0" index="0" disallow="bus" speed="7.45" length="10.70" shape="-541.73,-719.23 -543.61,-717.07 -544.48,-714.75 -544.33,-712.28 -543.15,-709.65"/>
    </edge>
    <edge id=":J17_3" function="internal">
        <lane id=":J17_3_0" index="0" speed="13.89" length="15.47" shape="-541.73,-719.23 -553.41,-709.10"/>
        <lane id=":J17_3_1" index="1" speed="13.89" length="15.47" shape="-543.82,-721.65 -555.51,-711.51"/>
    </edge>
    <edge id=":J17_5" function="internal">
        <lane id=":J17_5_0" index="0" disallow="bus" speed="7.65" length="12.00" shape="-543.82,-721.65 -546.95,-719.41 -549.77,-718.38 -552.30,-718.56 -554.52,-719.95"/>
    </edge>
    <edge id=":J17_6" function="internal">
        <lane id=":J17_6_0" index="0" disallow="bus" speed="13.89" length="15.61" shape="-552.30,-722.26 -549.72,-719.42 -547.37,-716.25 -545.19,-712.93 -543.15,-709.65"/>
    </edge>
    <edge id=":J17_7" function="internal">
        <lane id=":J17_7_0" index="0" speed="7.39" length="12.79" shape="-552.30,-722.26 -550.87,-720.02 -550.93,-717.48 -552.47,-714.64 -555.51,-711.51"/>
    </edge>
    <edge id=":J18_0" function="internal">
        <lane id=":J18_0_0" index="0" disallow="bus" speed="7.67" length="10.46" shape="-332.37,-365.46 -333.99,-367.27 -336.09,-368.27 -338.67,-368.46 -341.72,-367.84"/>
    </edge>
    <edge id=":J18_1" function="internal">
        <lane id=":J18_1_0" index="0" disallow="bus" speed="13.89" length="14.61" shape="-332.37,-365.46 -340.10,-377.86"/>
    </edge>
    <edge id=":J18_2" function="internal">
        <lane id=":J18_2_0" index="0" speed="6.03" length="9.07" shape="-342.68,-370.89 -340.35,-372.01 -339.14,-373.54 -339.06,-375.49 -340.10,-377.86"/>
    </edge>
    <edge id=":J19_0" function="internal">
        <lane id=":J19_0_0" index="0" speed="10.25" length="13.03" shape="-823.86,28.92 -821.84,32.61 -819.72,35.35 -817.49,37.15 -815.15,38.00"/>
    </edge>
    <edge id=":J19_1" function="internal">
        <lane id=":J19_1_0" index="0" disallow="bus" speed="5.60" length="9.33" shape="-830.70,35.53 -827.85,35.62 -826.24,34.77 -825.88,32.99 -826.75,30.28"/>
    </edge>
    <edge id=":J19_2" function="internal">
        <lane id=":J19_2_0" index="0" speed="13.89" length="15.74" shape="-830.70,35.53 -815.15,38.00"/>
        <lane id=":J19_2_1" index="1" speed="13.89" length="15.74" shape="-831.20,38.70 -815.65,41.16"/>
    </edge>
    <edge id=":J2_0" function="internal">
        <lane id=":J2_0_0" index="0" speed="9.99" length="7.46" shape="219.26,136.64 216.76,137.16 214.96,137.18 213.24,136.63 211.00,135.42"/>
        <lane id=":J2_0_1" index="1" speed="8.52" length="7.46" shape="218.51,133.53 216.73,133.90 215.44,133.92 214.21,133.52 212.61,132.65"/>
    </edge>
    <edge id=":J2_2" function="internal">
        <lane id=":J2_2_0" index="0" speed="4.25" length="2.49" shape="215.85,127.13 216.17,127.30 216.41,127.38 216.67,127.38 217.02,127.30"/>
        <lane id=":J2_2_1" index="1" speed="6.73" length="2.49" shape="214.23,129.89 215.19,130.41 215.93,130.65 216.70,130.64 217.77,130.42"/>
    </edge>
    <edge id=":J20_0" function="internal">
        <lane id=":J20_0_0" index="0" disallow="bus" speed="6.46" length="4.32" shape="-886.13,-95.68 -886.50,-96.73 -886.61,-97.77 -886.48,-98.81 -886.09,-99.85"/>
    </edge>
    <edge id=":J20_1" function="internal">
        <lane id=":J20_1_0" index="0" speed="4.10" length="1.44" shape="-883.22,-98.44 -883.35,-98.09 -883.40,-97.74 -883.36,-97.39 -883.23,-97.05"/>
    </edge>
    <edge id=":J21_0" function="internal">
        <lane id=":J21_0_0" index="0" speed="4.17" length="1.29" shape="-824.56,-216.16 -824.86,-216.04 -825.12,-215.86 -825.34,-215.63 -825.51,-215.35"/>
    </edge>
    <edge id=":J21_1" function="internal">
        <lane id=":J21_1_0" index="0" speed="6.59" length="3.88" shape="-828.38,-216.76 -827.86,-217.61 -827.21,-218.30 -826.43,-218.83 -825.51,-219.22"/>
    </edge>
    <edge id=":J22_0" function="internal">
        <lane id=":J22_0_0" index="0" disallow="bus" speed="6.08" length="9.07" shape="-863.96,-157.91 -861.75,-156.59 -859.80,-156.42 -858.09,-157.39 -856.64,-159.51"/>
    </edge>
    <edge id=":J22_1" function="internal">
        <lane id=":J22_1_0" index="0" speed="7.51" length="10.27" shape="-863.09,-146.45 -862.39,-148.78 -862.64,-151.06 -863.84,-153.27 -865.98,-155.42"/>
    </edge>
    <edge id=":J22_2" function="internal">
        <lane id=":J22_2_0" index="0" speed="13.89" length="14.56" shape="-863.09,-146.45 -856.64,-159.51"/>
    </edge>
    <edge id=":J23_0" function="internal">
        <lane id=":J23_0_0" index="0" speed="7.20" length="9.90" shape="-1087.38,-334.96 -1089.81,-336.50 -1092.11,-337.09 -1094.29,-336.73 -1096.35,-335.42"/>
    </edge>
    <edge id=":J23_1" function="internal">
        <lane id=":J23_1_0" index="0" disallow="bus" speed="6.19" length="9.05" shape="-1085.55,-345.06 -1087.18,-343.12 -1087.70,-341.20 -1087.09,-339.31 -1085.37,-337.44"/>
    </edge>
    <edge id=":J23_2" function="internal">
        <lane id=":J23_2_0" index="0" speed="13.89" length="14.48" shape="-1085.55,-345.06 -1096.35,-335.42"/>
        <lane id=":J23_2_1" index="1" speed="13.89" length="14.48" shape="-1087.68,-347.45 -1098.48,-337.80"/>
    </edge>
    <edge id=":J24_0" function="internal">
        <lane id=":J24_0_0" index="0" speed="8.79" length="11.65" shape="-1002.78,0.93 -1001.54,4.33 -999.94,6.87 -997.99,8.55 -995.68,9.38"/>
    </edge>
    <edge id=":J24_1" function="internal">
        <lane id=":J24_1_0" index="0" disallow="bus" speed="5.78" length="9.16" shape="-1010.54,7.02 -1007.84,7.08 -1006.16,6.22 -1005.51,4.46 -1005.87,1.79"/>
    </edge>
    <edge id=":J24_2" function="internal">
        <lane id=":J24_2_0" index="0" speed="13.89" length="15.04" shape="-1010.54,7.02 -995.68,9.38"/>
        <lane id=":J24_2_1" index="1" speed="13.89" length="15.04" shape="-1011.04,10.18 -996.18,12.54"/>
    </edge>
    <edge id=":J25_0" function="internal">
        <lane id=":J25_0_0" index="0" speed="5.94" length="9.09" shape="-1004.68,-267.90 -1006.93,-269.25 -1008.85,-269.39 -1010.46,-268.32 -1011.75,-266.04"/>
    </edge>
    <edge id=":J25_1" function="internal">
        <lane id=":J25_1_0" index="0" speed="13.89" length="15.61" shape="-1004.68,-267.90 -1016.80,-277.73"/>
    </edge>
    <edge id=":J25_2" function="internal">
        <lane id=":J25_2_0" index="0" speed="8.15" length="13.19" shape="-1004.68,-267.90 -1007.81,-270.91 -1009.62,-273.77 -1010.10,-276.48 -1009.25,-279.05"/>
    </edge>
    <edge id=":J25_3" function="internal">
        <lane id=":J25_3_0" index="0" speed="13.89" length="12.53" shape="-1006.51,-277.40 -1008.16,-274.47 -1009.41,-271.86 -1010.52,-269.18 -1011.75,-266.04"/>
    </edge>
    <edge id=":J25_4" function="internal">
        <lane id=":J25_4_0" index="0" speed="7.07" length="2.73" shape="-1006.51,-277.40 -1008.37,-275.40"/>
    </edge>
    <edge id=":J25_7" function="internal">
        <lane id=":J25_7_0" index="0" speed="7.07" length="9.26" shape="-1008.37,-275.40 -1010.71,-274.79 -1013.52,-275.57 -1016.80,-277.73"/>
    </edge>
    <edge id=":J25_5" function="internal">
        <lane id=":J25_5_0" index="0" speed="8.24" length="11.56" shape="-1014.73,-267.21 -1013.87,-270.38 -1013.93,-273.19 -1014.91,-275.64 -1016.80,-277.73"/>
    </edge>
    <edge id=":J25_6" function="internal">
        <lane id=":J25_6_0" index="0" speed="13.89" length="13.07" shape="-1014.73,-267.21 -1013.46,-270.42 -1012.27,-273.27 -1010.94,-276.05 -1009.25,-279.05"/>
    </edge>
    <edge id=":J26_0" function="internal">
        <lane id=":J26_0_0" index="0" disallow="bus" speed="13.89" length="9.41" shape="-498.50,-638.03 -493.52,-630.04"/>
    </edge>
    <edge id=":J26_1" function="internal">
        <lane id=":J26_1_0" index="0" disallow="bus" speed="6.02" length="7.92" shape="-498.50,-638.03 -497.21,-635.55 -496.70,-633.55 -496.99,-632.03 -498.08,-630.98"/>
    </edge>
    <edge id=":J26_2" function="internal">
        <lane id=":J26_2_0" index="0" speed="6.24" length="1.02" shape="-499.61,-633.79 -498.62,-634.02"/>
    </edge>
    <edge id=":J26_3" function="internal">
        <lane id=":J26_3_0" index="0" speed="6.24" length="6.83" shape="-498.62,-634.02 -498.18,-634.13 -496.69,-633.62 -495.14,-632.26 -493.52,-630.04"/>
    </edge>
    <edge id=":J27_0" function="internal">
        <lane id=":J27_0_0" index="0" disallow="bus" speed="7.03" length="3.14" shape="-1052.93,-167.13 -1053.16,-168.02 -1053.22,-168.67 -1053.10,-169.30 -1052.78,-170.17"/>
    </edge>
    <edge id=":J27_1" function="internal">
        <lane id=":J27_1_0" index="0" speed="4.40" length="1.05" shape="-1049.80,-169.00 -1049.91,-168.71 -1049.95,-168.50 -1049.93,-168.29 -1049.85,-167.99"/>
    </edge>
    <edge id=":J28_0" function="internal">
        <lane id=":J28_0_0" index="0" speed="13.89" length="0.82" shape="-944.30,-380.17 -944.51,-380.04 -944.64,-379.94 -944.75,-379.81 -944.88,-379.60"/>
    </edge>
    <edge id=":J28_1" function="internal">
        <lane id=":J28_1_0" index="0" speed="7.71" length="2.45" shape="-947.62,-381.26 -947.23,-381.87 -946.92,-382.26 -946.52,-382.57 -945.90,-382.94"/>
    </edge>
    <edge id=":J29_0" function="internal">
        <lane id=":J29_0_0" index="0" speed="13.89" length="0.25" shape="-698.20,-521.51 -698.41,-521.39"/>
    </edge>
    <edge id=":J29_1" function="internal">
        <lane id=":J29_1_0" index="0" speed="13.89" length="0.31" shape="-700.01,-524.17 -699.74,-524.32"/>
    </edge>
    <edge id=":J3_0" function="internal">
        <lane id=":J3_0_0" index="0" speed="13.89" length="2.22" shape="-628.62,76.98 -629.39,77.03 -629.91,77.04 -630.44,76.99 -631.19,76.87"/>
        <lane id=":J3_0_1" index="1" speed="13.89" length="2.22" shape="-628.85,73.79 -629.40,73.83 -629.78,73.83 -630.15,73.80 -630.69,73.71"/>
    </edge>
    <edge id=":J3_2" function="internal">
        <lane id=":J3_2_0" index="0" speed="13.89" length="0.74" shape="-629.69,67.39 -629.58,67.41 -629.51,67.42 -629.43,67.42 -629.32,67.41"/>
        <lane id=":J3_2_1" index="1" speed="13.89" length="0.74" shape="-630.19,70.55 -629.87,70.60 -629.64,70.62 -629.42,70.62 -629.09,70.60"/>
    </edge>
    <edge id=":J30_0" function="internal">
        <lane id=":J30_0_0" index="0" speed="4.05" length="1.58" shape="-1611.00,-1029.49 -1611.40,-1029.45 -1611.76,-1029.33 -1612.08,-1029.11 -1612.35,-1028.81"/>
    </edge>
    <edge id=":J30_1" function="internal">
        <lane id=":J30_1_0" index="0" speed="6.36" length="4.73" shape="-1614.97,-1030.65 -1614.16,-1031.57 -1613.21,-1032.21 -1612.13,-1032.58 -1610.91,-1032.68"/>
    </edge>
    <edge id=":J31_0" function="internal">
        <lane id=":J31_0_0" index="0" speed="13.89" length="23.70" shape="-715.73,63.47 -722.83,63.26 -729.18,64.43 -734.58,66.12 -738.85,67.48"/>
    </edge>
    <edge id=":J31_1" function="internal">
        <lane id=":J31_1_0" index="0" speed="13.89" length="24.40" shape="-715.73,63.47 -739.83,59.65"/>
        <lane id=":J31_1_1" index="1" speed="13.89" length="24.40" shape="-715.23,60.31 -739.33,56.49"/>
    </edge>
    <edge id=":J31_3" function="internal">
        <lane id=":J31_3_0" index="0" speed="5.73" length="12.79" shape="-739.62,64.37 -735.32,63.00 -733.91,61.76 -735.42,60.64 -739.83,59.65"/>
    </edge>
    <edge id=":J32_0" function="internal">
        <lane id=":J32_0_0" index="0" speed="13.89" length="1.45" shape="-835.18,91.44 -835.60,91.54 -835.89,91.58 -836.19,91.59 -836.62,91.57"/>
    </edge>
    <edge id=":J32_1" function="internal">
        <lane id=":J32_1_0" index="0" speed="13.89" length="0.48" shape="-836.43,88.37 -836.29,88.38 -836.19,88.38 -836.09,88.36 -835.95,88.33"/>
    </edge>
    <edge id=":J33_0" function="internal">
        <lane id=":J33_0_0" index="0" speed="6.41" length="4.49" shape="-1094.88,76.50 -1096.02,76.31 -1097.03,75.89 -1097.89,75.23 -1098.62,74.33"/>
    </edge>
    <edge id=":J33_1" function="internal">
        <lane id=":J33_1_0" index="0" speed="4.08" length="1.50" shape="-1095.94,72.58 -1095.70,72.88 -1095.41,73.10 -1095.07,73.24 -1094.69,73.31"/>
    </edge>
    <edge id=":J34_0" function="internal">
        <lane id=":J34_0_0" index="0" speed="7.04" length="3.13" shape="-1192.02,-69.03 -1192.50,-69.82 -1192.75,-70.41 -1192.82,-71.05 -1192.79,-71.97"/>
    </edge>
    <edge id=":J34_1" function="internal">
        <lane id=":J34_1_0" index="0" speed="4.41" length="1.04" shape="-1189.59,-71.76 -1189.61,-71.45 -1189.58,-71.24 -1189.50,-71.04 -1189.34,-70.78"/>
    </edge>
    <edge id=":J35_0" function="internal">
        <lane id=":J35_0_0" index="0" speed="13.89" length="0.93" shape="-1172.23,-335.90 -1172.20,-335.63 -1172.18,-335.44 -1172.19,-335.25 -1172.20,-334.97"/>
    </edge>
    <edge id=":J35_1" function="internal">
        <lane id=":J35_1_0" index="0" speed="13.89" length="0.31" shape="-1175.40,-335.19 -1175.39,-335.28 -1175.39,-335.34 -1175.40,-335.40 -1175.41,-335.49"/>
    </edge>
    <edge id=":J36_0" function="internal">
        <lane id=":J36_0_0" index="0" speed="13.89" length="15.68" shape="-1203.86,-557.55 -1204.95,-561.16 -1206.97,-564.56 -1209.49,-567.72 -1212.08,-570.65"/>
    </edge>
    <edge id=":J36_1" function="internal">
        <lane id=":J36_1_0" index="0" speed="13.89" length="17.24" shape="-1203.86,-557.55 -1204.19,-561.63 -1204.28,-566.15 -1204.22,-570.68 -1204.10,-574.78"/>
    </edge>
    <edge id=":J36_2" function="internal">
        <lane id=":J36_2_0" index="0" speed="13.89" length="16.73" shape="-1200.90,-574.67 -1201.03,-570.65 -1201.10,-566.30 -1201.01,-561.96 -1200.69,-557.96"/>
    </edge>
    <edge id=":J36_3" function="internal">
        <lane id=":J36_3_0" index="0" speed="7.44" length="5.99" shape="-1200.90,-574.67 -1201.76,-568.74"/>
    </edge>
    <edge id=":J36_6" function="internal">
        <lane id=":J36_6_0" index="0" speed="7.44" length="13.68" shape="-1201.76,-568.74 -1201.81,-568.40 -1203.97,-565.65 -1207.39,-566.39 -1212.08,-570.65"/>
    </edge>
    <edge id=":J36_4" function="internal">
        <lane id=":J36_4_0" index="0" speed="5.47" length="9.83" shape="-1209.68,-572.77 -1207.34,-570.64 -1205.63,-570.27 -1204.55,-571.65 -1204.10,-574.78"/>
    </edge>
    <edge id=":J36_5" function="internal">
        <lane id=":J36_5_0" index="0" speed="13.89" length="17.52" shape="-1209.68,-572.77 -1206.97,-569.57 -1204.18,-565.82 -1201.90,-561.84 -1200.69,-557.96"/>
    </edge>
    <edge id=":J37_0" function="internal">
        <lane id=":J37_0_0" index="0" speed="13.89" length="0.43" shape="-1287.02,-655.33 -1287.11,-655.43 -1287.17,-655.49 -1287.24,-655.54 -1287.35,-655.62"/>
    </edge>
    <edge id=":J37_1" function="internal">
        <lane id=":J37_1_0" index="0" speed="13.89" length="1.30" shape="-1285.60,-658.30 -1285.28,-658.09 -1285.07,-657.93 -1284.88,-657.74 -1284.62,-657.45"/>
    </edge>
    <edge id=":J38_0" function="internal">
        <lane id=":J38_0_0" index="0" speed="13.89" length="0.27" shape="-1458.99,-767.14 -1459.05,-767.19 -1459.10,-767.21 -1459.15,-767.24 -1459.22,-767.27"/>
    </edge>
    <edge id=":J38_1" function="internal">
        <lane id=":J38_1_0" index="0" speed="13.89" length="0.80" shape="-1457.95,-770.20 -1457.73,-770.11 -1457.58,-770.04 -1457.44,-769.95 -1457.24,-769.83"/>
    </edge>
    <edge id=":J39_0" function="internal">
        <lane id=":J39_0_0" index="0" speed="6.71" length="3.79" shape="-1614.87,-834.87 -1615.87,-835.35 -1616.50,-835.81 -1616.95,-836.45 -1617.40,-837.47"/>
    </edge>
    <edge id=":J39_1" function="internal">
        <lane id=":J39_1_0" index="0" speed="4.23" length="1.26" shape="-1614.44,-838.67 -1614.29,-838.33 -1614.14,-838.12 -1613.93,-837.97 -1613.60,-837.81"/>
    </edge>
    <edge id=":J4_0" function="internal">
        <lane id=":J4_0_0" index="0" speed="9.15" length="13.44" shape="-1059.94,8.90 -1063.33,7.92 -1065.99,6.15 -1067.92,3.61 -1069.12,0.29"/>
        <lane id=":J4_0_1" index="1" speed="7.82" length="9.60" shape="-1059.44,5.74 -1061.86,5.04 -1063.76,3.78 -1065.14,1.96 -1065.99,-0.41"/>
    </edge>
    <edge id=":J4_2" function="internal">
        <lane id=":J4_2_0" index="0" speed="3.97" length="1.92" shape="-1059.75,-1.81 -1059.58,-1.34 -1059.30,-0.97 -1058.92,-0.72 -1058.44,-0.58"/>
        <lane id=":J4_2_1" index="1" speed="6.20" length="5.76" shape="-1062.87,-1.11 -1062.36,0.31 -1061.53,1.40 -1060.39,2.16 -1058.94,2.58"/>
    </edge>
    <edge id=":J40_0" function="internal">
        <lane id=":J40_0_0" index="0" speed="6.34" length="4.81" shape="-1665.34,-955.29 -1665.68,-956.48 -1665.71,-957.65 -1665.42,-958.77 -1664.82,-959.86"/>
    </edge>
    <edge id=":J40_1" function="internal">
        <lane id=":J40_1_0" index="0" speed="4.04" length="1.60" shape="-1662.21,-958.02 -1662.40,-957.65 -1662.50,-957.28 -1662.49,-956.89 -1662.38,-956.49"/>
    </edge>
    <edge id=":J41_0" function="internal">
        <lane id=":J41_0_0" index="0" speed="13.89" length="0.21" shape="-1195.05,-746.89 -1195.06,-746.68"/>
    </edge>
    <edge id=":J41_1" function="internal">
        <lane id=":J41_1_0" index="0" speed="13.89" length="0.30" shape="-1198.25,-746.79 -1198.24,-747.09"/>
    </edge>
    <edge id=":J42_0" function="internal">
        <lane id=":J42_0_0" index="0" speed="6.04" length="9.07" shape="-1169.91,-1050.37 -1172.45,-1050.80 -1174.33,-1050.24 -1175.53,-1048.70 -1176.06,-1046.17"/>
    </edge>
    <edge id=":J42_1" function="internal">
        <lane id=":J42_1_0" index="0" speed="8.93" length="14.70" shape="-1169.91,-1050.37 -1173.78,-1052.10 -1176.46,-1054.45 -1177.95,-1057.41 -1178.26,-1060.98"/>
    </edge>
    <edge id=":J42_2" function="internal">
        <lane id=":J42_2_0" index="0" speed="7.59" length="10.39" shape="-1175.07,-1060.75 -1174.83,-1058.32 -1173.73,-1056.29 -1171.76,-1054.66 -1168.93,-1053.42"/>
    </edge>
    <edge id=":J42_3" function="internal">
        <lane id=":J42_3_0" index="0" speed="13.89" length="14.61" shape="-1175.07,-1060.75 -1176.06,-1046.17"/>
    </edge>
    <edge id=":J42_4" function="internal">
        <lane id=":J42_4_0" index="0" speed="13.89" length="14.64" shape="-1179.25,-1046.37 -1178.26,-1060.98"/>
    </edge>
    <edge id=":J42_5" function="internal">
        <lane id=":J42_5_0" index="0" speed="7.63" length="4.33" shape="-1179.25,-1046.37 -1178.36,-1050.62"/>
    </edge>
    <edge id=":J42_6" function="internal">
        <lane id=":J42_6_0" index="0" speed="7.63" length="10.89" shape="-1178.36,-1050.62 -1176.35,-1053.20 -1173.21,-1054.14 -1168.93,-1053.42"/>
    </edge>
    <edge id=":J44_0" function="internal">
        <lane id=":J44_0_0" index="0" disallow="bus" speed="13.89" length="0.74" shape="-762.30,-919.90 -762.46,-920.05 -762.58,-920.14 -762.72,-920.20 -762.93,-920.27"/>
    </edge>
    <edge id=":J44_1" function="internal">
        <lane id=":J44_1_0" index="0" speed="8.17" length="2.21" shape="-761.95,-923.32 -761.33,-923.11 -760.92,-922.92 -760.56,-922.65 -760.08,-922.21"/>
    </edge>
    <edge id=":J45_0" function="internal">
        <lane id=":J45_0_0" index="0" speed="6.39" length="4.57" shape="139.73,-162.53 140.21,-161.45 140.41,-160.36 140.32,-159.25 139.95,-158.14"/>
    </edge>
    <edge id=":J45_1" function="internal">
        <lane id=":J45_1_0" index="0" speed="4.07" length="1.52" shape="137.03,-159.46 137.16,-159.83 137.19,-160.20 137.12,-160.57 136.96,-160.93"/>
    </edge>
    <edge id=":J46_0" function="internal">
        <lane id=":J46_0_0" index="0" speed="6.49" length="4.21" shape="-1425.29,-1026.29 -1426.08,-1025.56 -1426.96,-1025.04 -1427.95,-1024.74 -1429.02,-1024.66"/>
    </edge>
    <edge id=":J46_1" function="internal">
        <lane id=":J46_1_0" index="0" speed="4.12" length="1.40" shape="-1428.94,-1027.86 -1428.58,-1027.89 -1428.25,-1027.99 -1427.96,-1028.16 -1427.69,-1028.40"/>
    </edge>
    <edge id=":J47_0" function="internal">
        <lane id=":J47_0_0" index="0" speed="7.41" length="2.69" shape="-1331.23,-1134.47 -1331.38,-1133.69 -1331.55,-1133.17 -1331.85,-1132.71 -1332.36,-1132.10"/>
    </edge>
    <edge id=":J47_1" function="internal">
        <lane id=":J47_1_0" index="0" speed="13.89" length="0.90" shape="-1334.76,-1134.21 -1334.59,-1134.41 -1334.49,-1134.57 -1334.44,-1134.74 -1334.39,-1135.00"/>
    </edge>